<?xml version="1.0" encoding="UTF-8"?>

<!-- generated on 2026-03-31T15:41:00.943790-07:00 by Eclipse SUMO sumo 1.25.0
-->

<sumoConfiguration xmlns:xsi="http://www.w3.org/2001/XMLSchema-instance" xsi:noNamespaceSchemaLocation="http://sumo.dlr.de/xsd/sumoConfiguration.xsd">

    <input>
        <net-file value="halifax.net.xml"/>
        <additional-files value="Halifax_buildings.xml"/>
    </input>

</sumoConfiguration>
